CPDS_validation_cosim/Distribution/Bus11/IEEE34Bus/ieee34-1_Power_seq_kVA.txt

SYMMETRICAL COMPONENT POWERS BY CIRCUIT ELEMENT (first 3 phases)                                     Excess Power

Element             Term    P1(kW)   Q1(kvar)       P2         Q2      P0      Q0       P_Norm      Q_Norm     P_Emerg    Q_Emerg

"Vsource.SOURCE"     1    -1802.7     -252.6        0.0        0.0     0.0    -0.0
"Vsource.SOURCE"     2        0.0        0.0        0.0        0.0     0.0     0.0
"Transformer.SUBXF"  1     1802.7      252.6       -0.0       -0.0    -0.0     0.0        0.0        0.0        0.0        0.0
"Transformer.SUBXF"  2    -1802.7     -252.6        0.0        0.0     0.0     0.0
"Line.L1"            1     1802.7      252.6       -0.0       -0.0    -0.0    -0.0        0.0        0.0        0.0        0.0
"Line.L1"            2    -1800.1     -252.6        0.0        0.0     0.0     0.0
"Line.L2"            1     1772.6      238.1       -0.0       -0.0    -0.0    -0.0        0.0        0.0        0.0        0.0
"Line.L2"            2    -1770.9     -238.2        0.1        0.0     0.0     0.0
"Line.L3"            1     1743.4      223.7       -0.1       -0.0    -0.0    -0.0        0.0        0.0        0.0        0.0
"Line.L3"            2    -1712.5     -225.6        0.7        0.3     0.1     0.1
"Line.L4"            1        0.0        0.0        0.0        0.0     0.0     0.0        0.0        0.0        0.0        0.0
"Line.L4"            2        0.0        0.0        0.0        0.0     0.0     0.0
"Line.L5"            1     1696.1      218.2       -0.8       -0.4    -0.1    -0.1        0.0        0.0        0.0        0.0
"Line.L5"            2    -1660.7     -219.6        1.7        0.8     0.2     0.3
"Line.L6"            1     1660.7      219.6       -1.7       -0.8    -0.2    -0.3        0.0        0.0        0.0        0.0
"Line.L6"            2    -1632.7     -219.8        2.4        1.1     0.3     0.4
"Line.L7"            1     1630.2      217.7       -0.4       -0.2    -0.1     0.2        0.0        0.0        0.0        0.0
"Line.L7"            2    -1630.2     -217.7        0.4        0.2     0.1    -0.2
"Line.L8"            1        0.0        0.0        0.0        0.0     0.0     0.0        0.0        0.0        0.0        0.0
"Line.L8"            2        0.0        0.0        0.0        0.0     0.0     0.0
"Line.L9"            1     1552.6      139.2        0.0       -0.1    -0.2    -0.4        0.0        0.0        0.0        0.0
"Line.L9"            2    -1540.4     -140.4        0.0        0.2     0.3     0.4
"Line.L10"           1        0.0        0.0        0.0        0.0     0.0     0.0        0.0        0.0        0.0        0.0
"Line.L10"           2        0.0        0.0        0.0        0.0     0.0     0.0
"Line.L11"           1        0.0        0.0        0.0        0.0     0.0     0.0        0.0        0.0        0.0        0.0
"Line.L11"           2        0.0        0.0        0.0        0.0     0.0     0.0
"Line.L12"           1        0.0        0.0        0.0        0.0     0.0     0.0        0.0        0.0        0.0        0.0
"Line.L12"           2        0.0        0.0        0.0        0.0     0.0     0.0
"Line.L13"           1     1496.9      119.3       -0.1       -0.2    -0.1    -0.3        0.0        0.0        0.0        0.0
"Line.L13"           2    -1495.9     -119.4        0.1        0.3     0.1     0.3
"Line.L14"           1     1490.4      117.0       -0.1       -0.3    -0.1    -0.4        0.0        0.0        0.0        0.0
"Line.L14"           2    -1467.5     -119.8        0.3        0.4     0.2     0.4
"Line.L15"           1     1469.2       98.0       -0.4       -0.2    -0.0    -0.2        0.0        0.0        0.0        0.0
"Line.L15"           2    -1468.6      -98.1        0.4        0.2     0.0     0.2
"Line.L16"           1      961.2     -150.9       -0.3       -0.2    -0.1    -0.4        0.0        0.0        0.0        0.0
"Line.L16"           2     -959.0      148.3        0.4        0.2     0.1     0.4
"Line.L17"           1      318.2      181.5       -0.1       -0.0    -0.3    -0.1        0.0        0.0        0.0        0.0
"Line.L17"           2     -318.1     -183.0        0.1        0.0     0.3     0.1
"Line.L18"           1      523.3     -384.9       -0.0        0.0     0.2    -0.4        0.0        0.0        0.0        0.0
"Line.L18"           2     -523.2      384.7        0.0       -0.0    -0.2     0.4
"Line.L19"           1       48.7       31.5        0.1        0.0     0.0     0.0        0.0        0.0        0.0        0.0
"Line.L19"           2      -48.7      -32.1       -0.1       -0.0    -0.0    -0.0
"Line.L20"           1       28.2       12.9        0.1        0.1    -0.3    -0.1        0.0        0.0        0.0        0.0
"Line.L20"           2      -28.2      -13.1       -0.1       -0.1     0.3     0.1
"Line.L21"           1      518.7     -387.1       -0.0        0.0     0.2    -0.4        0.0        0.0        0.0        0.0
"Line.L21"           2     -518.4      386.3        0.0       -0.0    -0.2     0.4
"Line.L22"           1      106.0     -416.6        0.2        0.0    -0.3    -0.2        0.0        0.0        0.0        0.0
"Line.L22"           2     -105.7      414.0       -0.2       -0.0     0.3     0.2
"Line.L23"           1       71.6     -431.2        0.1        0.0    -0.1    -0.1        0.0        0.0        0.0        0.0
"Line.L23"           2      -71.6      430.8       -0.1       -0.0     0.1     0.1
"Line.L24"           1     1677.8      217.7       -0.3       -0.1    -0.2     0.2        0.0        0.0        0.0        0.0
"Line.L24"           2    -1677.4     -217.7        0.3        0.1     0.2    -0.2
"Line.L25"           1     1422.9      103.5       -0.3       -0.2    -0.0    -0.4        0.0        0.0        0.0        0.0
"Line.L25"           2    -1422.9     -103.5        0.3        0.2     0.0     0.4
"Transformer.XFM1"   1      459.0      253.1        0.0        0.0    -0.0    -0.0        0.0        0.0        0.0        0.0
"Transformer.XFM1"   2     -449.4     -232.5       -0.0       -0.0     0.0     0.0
"Line.L26"           1        0.0        0.0        0.0        0.0     0.0     0.0        0.0        0.0        0.0        0.0
"Line.L26"           2        0.0        0.0        0.0        0.0     0.0     0.0
"Line.L27"           1     1464.6       99.9       -0.4       -0.2     0.0    -0.2        0.0        0.0        0.0        0.0
"Line.L27"           2    -1423.4     -103.9        0.7        0.3     0.0     0.3
"Line.L28"           1        0.0        0.0        0.0        0.0     0.0     0.0        0.0        0.0        0.0        0.0
"Line.L28"           2        0.0        0.0        0.0        0.0     0.0     0.0
"Line.L29"           1      938.3     -158.7       -0.4       -0.2    -0.1    -0.4        0.0        0.0        0.0        0.0
"Line.L29"           2     -935.8      155.6        0.4        0.2     0.1     0.4
"Line.L30"           1      138.8       74.3        0.2        0.1    -0.3    -0.1        0.0        0.0        0.0        0.0
"Line.L30"           2     -138.7      -76.3       -0.2       -0.1     0.3     0.1
"Line.L31"           1        0.0        0.0        0.0        0.0     0.0     0.0        0.0        0.0        0.0        0.0
"Line.L31"           2        0.0        0.0        0.0        0.0     0.0     0.0
"Line.L32"           1      449.4      232.5        0.0        0.0    -0.0    -0.0        0.0        0.0        0.0        0.0
"Line.L32"           2     -416.6     -208.3       -0.0       -0.0    -0.0     0.0
"Capacitor.C844"     1       -0.0     -322.7        0.0       -0.0    -0.0    -0.0        0.0        0.0        0.0        0.0
"Capacitor.C844"     2        0.0        0.0        0.0        0.0     0.0     0.0
"Capacitor.C848"     1        0.0     -484.3        0.0       -0.0    -0.0    -0.1        0.0        0.0        0.0        0.0
"Capacitor.C848"     2        0.0        0.0        0.0        0.0     0.0     0.0
"Transformer.REG1A"  1        0.0        0.0        0.0        0.0     0.0     0.0        0.0        0.0        0.0        0.0
"Transformer.REG1A"  2        0.0        0.0        0.0        0.0     0.0     0.0
"Transformer.REG1B"  1        0.0        0.0        0.0        0.0     0.0     0.0        0.0        0.0        0.0        0.0
"Transformer.REG1B"  2        0.0        0.0        0.0        0.0     0.0     0.0
"Transformer.REG1C"  1        0.0        0.0        0.0        0.0     0.0     0.0        0.0        0.0        0.0        0.0
"Transformer.REG1C"  2        0.0        0.0        0.0        0.0     0.0     0.0
"Transformer.REG2A"  1        0.0        0.0        0.0        0.0     0.0     0.0        0.0        0.0        0.0        0.0
"Transformer.REG2A"  2        0.0        0.0        0.0        0.0     0.0     0.0
"Transformer.REG2B"  1        0.0        0.0        0.0        0.0     0.0     0.0        0.0        0.0        0.0        0.0
"Transformer.REG2B"  2        0.0        0.0        0.0        0.0     0.0     0.0
"Transformer.REG2C"  1        0.0        0.0        0.0        0.0     0.0     0.0        0.0        0.0        0.0        0.0
"Transformer.REG2C"  2        0.0        0.0        0.0        0.0     0.0     0.0
"Load.S860"          1       60.0       48.0        0.0        0.0     0.0     0.0
"Load.S840"          1       28.0       21.8        0.0        0.0     0.0     0.0
"Load.S844"          1      435.7      338.9        0.0        0.0     0.1     0.0
"Load.S848"          1       60.0       48.0       -0.0       -0.0     0.0     0.0
"Load.S830"          1       44.7       19.9        0.0        0.0     0.0     0.0
"Load.S890"          1      416.6      208.3        0.0        0.0     0.0     0.0
"Load.D802_806SB"    1        0.0        0.0        0.0        0.0     0.0     0.0
"Load.D802_806RB"    1        0.0        0.0        0.0        0.0     0.0     0.0
"Load.D802_806SC"    1        0.0        0.0        0.0        0.0     0.0     0.0
"Load.D802_806RC"    1        0.0        0.0        0.0        0.0     0.0     0.0
"Load.D808_810SB"    1        0.0        0.0        0.0        0.0     0.0     0.0
"Load.D808_810RB"    1        0.0        0.0        0.0        0.0     0.0     0.0
"Load.D818_820SA"    1        0.0        0.0        0.0        0.0     0.0     0.0
"Load.D818_820RA"    1        0.0        0.0        0.0        0.0     0.0     0.0
"Load.D820_822SA"    1        0.0        0.0        0.0        0.0     0.0     0.0
"Load.D820_822RA"    1        0.0        0.0        0.0        0.0     0.0     0.0
"Load.D816_824SB"    1        0.0        0.0        0.0        0.0     0.0     0.0
"Load.D816_824RB"    1        0.0        0.0        0.0        0.0     0.0     0.0
"Load.D824_826SB"    1        0.0        0.0        0.0        0.0     0.0     0.0
"Load.D824_826RB"    1        0.0        0.0        0.0        0.0     0.0     0.0
"Load.D824_828SC"    1        0.0        0.0        0.0        0.0     0.0     0.0
"Load.D824_828RC"    1        0.0        0.0        0.0        0.0     0.0     0.0
"Load.D828_830SA"    1        0.0        0.0        0.0        0.0     0.0     0.0
"Load.D828_830RA"    1        0.0        0.0        0.0        0.0     0.0     0.0
"Load.D854_856SB"    1        0.0        0.0        0.0        0.0     0.0     0.0
"Load.D854_856RB"    1        0.0        0.0        0.0        0.0     0.0     0.0
"Load.D832_858SA"    1        0.0        0.0        0.0        0.0     0.0     0.0
"Load.D832_858RA"    1        0.0        0.0        0.0        0.0     0.0     0.0
"Load.D832_858SB"    1        0.0        0.0        0.0        0.0     0.0     0.0
"Load.D832_858RB"    1        0.0        0.0        0.0        0.0     0.0     0.0
"Load.D832_858SC"    1        0.0        0.0        0.0        0.0     0.0     0.0
"Load.D832_858RC"    1        0.0        0.0        0.0        0.0     0.0     0.0
"Load.D858_864SB"    1        0.0        0.0        0.0        0.0     0.0     0.0
"Load.D858_864RB"    1        0.0        0.0        0.0        0.0     0.0     0.0
"Load.D858_834SA"    1        0.0        0.0        0.0        0.0     0.0     0.0
"Load.D858_834RA"    1        0.0        0.0        0.0        0.0     0.0     0.0
"Load.D858_834SB"    1        0.0        0.0        0.0        0.0     0.0     0.0
"Load.D858_834RB"    1        0.0        0.0        0.0        0.0     0.0     0.0
"Load.D858_834SC"    1        0.0        0.0        0.0        0.0     0.0     0.0
"Load.D858_834RC"    1        0.0        0.0        0.0        0.0     0.0     0.0
"Load.D834_860SA"    1        0.0        0.0        0.0        0.0     0.0     0.0
"Load.D834_860RA"    1        0.0        0.0        0.0        0.0     0.0     0.0
"Load.D834_860SB"    1        0.0        0.0        0.0        0.0     0.0     0.0
"Load.D834_860RB"    1        0.0        0.0        0.0        0.0     0.0     0.0
"Load.D834_860SC"    1        0.0        0.0        0.0        0.0     0.0     0.0
"Load.D834_860RC"    1        0.0        0.0        0.0        0.0     0.0     0.0
"Load.D860_836SA"    1        0.0        0.0        0.0        0.0     0.0     0.0
"Load.D860_836RA"    1        0.0        0.0        0.0        0.0     0.0     0.0
"Load.D860_836SB"    1        0.0        0.0        0.0        0.0     0.0     0.0
"Load.D860_836RB"    1        0.0        0.0        0.0        0.0     0.0     0.0
"Load.D860_836SC"    1        0.0        0.0        0.0        0.0     0.0     0.0
"Load.D860_836RC"    1        0.0        0.0        0.0        0.0     0.0     0.0
"Load.D836_840SA"    1        0.0        0.0        0.0        0.0     0.0     0.0
"Load.D836_840RA"    1        0.0        0.0        0.0        0.0     0.0     0.0
"Load.D836_840SB"    1        0.0        0.0        0.0        0.0     0.0     0.0
"Load.D836_840RB"    1        0.0        0.0        0.0        0.0     0.0     0.0
"Load.D862_838SB"    1        0.0        0.0        0.0        0.0     0.0     0.0
"Load.D862_838RB"    1        0.0        0.0        0.0        0.0     0.0     0.0
"Load.D842_844SA"    1        0.0        0.0        0.0        0.0     0.0     0.0
"Load.D842_844RA"    1        0.0        0.0        0.0        0.0     0.0     0.0
"Load.D844_846SB"    1        0.0        0.0        0.0        0.0     0.0     0.0
"Load.D844_846RB"    1        0.0        0.0        0.0        0.0     0.0     0.0
"Load.D844_846SC"    1        0.0        0.0        0.0        0.0     0.0     0.0
"Load.D844_846RC"    1        0.0        0.0        0.0        0.0     0.0     0.0
"Load.D846_848SB"    1        0.0        0.0        0.0        0.0     0.0     0.0
"Load.D846_848RB"    1        0.0        0.0        0.0        0.0     0.0     0.0
"Generator.DER1"     1        0.0        0.0        0.0        0.0     0.0     0.0
"Generator.DER2"     1        0.0        0.0        0.0        0.0     0.0     0.0
"Generator.DER3"     1        0.0        0.0        0.0        0.0     0.0     0.0
"Generator.DER4"     1        0.0        0.0        0.0        0.0     0.0     0.0

Total Circuit Losses =  232.5 +j    6.7
